INPUT_FILES/9bus_gfm_imax12/gen_dynamic_data_reference.csv
bus;Eg;Xd_tr;Xq_tr;Xd;Xq;Td;Tq;H;D;Ra;T_exc;K_exc;R;T1;T2;T3;is_gfm;Xl;mq;Kpv;Kiv;Emax;Emin;mp;Pmax;Pmin;Kppmax;Kipmax;Tf;Imax;InvBase
1;1.1;0.0608;0.0608;0.2432;0.2432;6.0;0.5;23.64;0;0.0;1;100;0.05;0.5;2.5;7.5;0;0.15;0.05;0.0;5.86;1.2;0.0;0.01;1.0;0.0;0.01;0.1;0.1;1.6;250
2;1.1;0.1198;0.1198;0.4792;0.4792;6.0;0.5;6.4;0;0.0;1;100;0.05;0.5;2.5;7.5;0;0.15;0.05;0.0;5.86;1.2;0.0;0.01;1.0;0.0;0.01;0.1;0.01;1.6;300
3;1.1;0.1813;0.1813;0.7252;0.7252;6.0;0.5;3.01;0;0.0;1;100;0.05;0.5;2.5;7.5;0;0.15;0.05;0.0;5.86;1.2;0.0;0.01;2.0;0.0;0.01;0.1;0.0;99.0;175
5;1.1;0.1813;0.1813;0.7252;0.7252;6.0;0.5;3.01;0;0.0;1;100;0.05;0.5;2.5;7.5;1;0.15;0.05;0.0;5.86;1.2;0.0;0.01;1.0;0.0;0.01;0.1;0.01;99.0;100
6;1.1;0.1813;0.1813;0.7252;0.7252;6.0;0.5;3.01;0;0.0;1;100;0.05;0.5;2.5;7.5;1;0.15;0.05;0.0;5.86;1.2;0.0;0.01;1.0;0.0;0.01;0.1;0.01;99.0;100
8;1.1;0.1813;0.1813;0.7252;0.7252;6.0;0.5;3.01;0;0.0;1;100;0.05;0.5;2.5;7.5;1;0.15;0.05;0.0;5.86;1.2;0.0;0.01;1.0;0.0;0.01;0.1;0.01;99.0;100
